1,'GENCLS',1,    5.000,      5.0,    0.10
2,'GENCLS',1,    5.000,      5.0,    0.15

