1,'GENCLS',1,    5.148,      0.0,    0.10
2,'GENCLS',1,    6.540,      0.0,    0.15
3,'GENCLS',1,    0.500,      0.0,    0.20
6,'GENCLS',1,    0.500,      0.0,    0.25
8,'GENCLS',1,    0.500,      0.0,    0.30
